<configuration>

<input>
    <net-file value="intersection_3.net.xml" />
    <route-files value="intersection_3.rou.xml"/>
	<additional-files value="intersection_3.add.xml"/>
</input>
<output>
	<tripinfo-output value="intersection_3.xml"/>
        <tripinfo-output.write-unfinished value="True"/>
	<summary-output value="summary.xml"/>

</output>



</configuration>