<routes>
      <vehicle id="0" depart="23.0"> 
        <route edges="e4_in e2_out"/> 
      </vehicle>
      <vehicle id="1" depart="27.0"> 
        <route edges="e3_in e2_out"/> 
      </vehicle>
      <vehicle id="2" depart="31.0"> 
        <route edges="e2_in e1_out"/> 
      </vehicle>
      <vehicle id="3" depart="41.0"> 
        <route edges="e2_in e4_out"/> 
      </vehicle>
      <vehicle id="4" depart="48.0"> 
        <route edges="e3_in e1_out"/> 
      </vehicle>
      <vehicle id="5" depart="55.0"> 
        <route edges="e3_in e4_out"/> 
      </vehicle>
      <vehicle id="6" depart="61.0"> 
        <route edges="e4_in e2_out"/> 
      </vehicle>
      <vehicle id="7" depart="67.0"> 
        <route edges="e2_in e4_out"/> 
      </vehicle>
      <vehicle id="8" depart="80.0"> 
        <route edges="e1_in e3_out"/> 
      </vehicle>
      <vehicle id="9" depart="82.0"> 
        <route edges="e2_in e3_out"/> 
      </vehicle>
      <vehicle id="10" depart="83.0"> 
        <route edges="e2_in e4_out"/> 
      </vehicle>
      <vehicle id="11" depart="88.0"> 
        <route edges="e4_in e2_out"/> 
      </vehicle>
      <vehicle id="12" depart="90.0"> 
        <route edges="e1_in e3_out"/> 
      </vehicle>
      <vehicle id="13" depart="90.0"> 
        <route edges="e1_in e4_out"/> 
      </vehicle>
      <vehicle id="14" depart="90.0"> 
        <route edges="e1_in e3_out"/> 
      </vehicle>
      <vehicle id="15" depart="91.0"> 
        <route edges="e1_in e4_out"/> 
      </vehicle>
      <vehicle id="16" depart="92.0"> 
        <route edges="e3_in e1_out"/> 
      </vehicle>
      <vehicle id="17" depart="92.0"> 
        <route edges="e3_in e4_out"/> 
      </vehicle>
      <vehicle id="18" depart="93.0"> 
        <route edges="e1_in e3_out"/> 
      </vehicle>
      <vehicle id="19" depart="93.0"> 
        <route edges="e3_in e4_out"/> 
      </vehicle>
      <vehicle id="20" depart="94.0"> 
        <route edges="e4_in e3_out"/> 
      </vehicle>
      <vehicle id="21" depart="96.0"> 
        <route edges="e2_in e1_out"/> 
      </vehicle>
      <vehicle id="22" depart="97.0"> 
        <route edges="e4_in e2_out"/> 
      </vehicle>
      <vehicle id="23" depart="97.0"> 
        <route edges="e1_in e4_out"/> 
      </vehicle>
      <vehicle id="24" depart="100.0"> 
        <route edges="e3_in e1_out"/> 
      </vehicle>
      <vehicle id="25" depart="103.0"> 
        <route edges="e3_in e1_out"/> 
      </vehicle>
      <vehicle id="26" depart="104.0"> 
        <route edges="e3_in e4_out"/> 
      </vehicle>
      <vehicle id="27" depart="105.0"> 
        <route edges="e4_in e2_out"/> 
      </vehicle>
      <vehicle id="28" depart="106.0"> 
        <route edges="e3_in e1_out"/> 
      </vehicle>
      <vehicle id="29" depart="106.0"> 
        <route edges="e4_in e2_out"/> 
      </vehicle>
      <vehicle id="30" depart="109.0"> 
        <route edges="e3_in e4_out"/> 
      </vehicle>
      <vehicle id="31" depart="109.0"> 
        <route edges="e3_in e2_out"/> 
      </vehicle>
      <vehicle id="32" depart="110.0"> 
        <route edges="e3_in e2_out"/> 
      </vehicle>
      <vehicle id="33" depart="112.0"> 
        <route edges="e4_in e2_out"/> 
      </vehicle>
      <vehicle id="34" depart="112.0"> 
        <route edges="e3_in e2_out"/> 
      </vehicle>
      <vehicle id="35" depart="113.0"> 
        <route edges="e1_in e3_out"/> 
      </vehicle>
      <vehicle id="36" depart="115.0"> 
        <route edges="e1_in e4_out"/> 
      </vehicle>
      <vehicle id="37" depart="117.0"> 
        <route edges="e3_in e1_out"/> 
      </vehicle>
      <vehicle id="38" depart="118.0"> 
        <route edges="e1_in e3_out"/> 
      </vehicle>
      <vehicle id="39" depart="121.0"> 
        <route edges="e2_in e4_out"/> 
      </vehicle>
      <vehicle id="40" depart="121.0"> 
        <route edges="e2_in e4_out"/> 
      </vehicle>
      <vehicle id="41" depart="122.0"> 
        <route edges="e4_in e2_out"/> 
      </vehicle>
      <vehicle id="42" depart="125.0"> 
        <route edges="e3_in e1_out"/> 
      </vehicle>
      <vehicle id="43" depart="128.0"> 
        <route edges="e4_in e2_out"/> 
      </vehicle>
      <vehicle id="44" depart="129.0"> 
        <route edges="e2_in e4_out"/> 
      </vehicle>
      <vehicle id="45" depart="132.0"> 
        <route edges="e3_in e2_out"/> 
      </vehicle>
      <vehicle id="46" depart="135.0"> 
        <route edges="e2_in e4_out"/> 
      </vehicle>
      <vehicle id="47" depart="135.0"> 
        <route edges="e3_in e1_out"/> 
      </vehicle>
      <vehicle id="48" depart="137.0"> 
        <route edges="e3_in e1_out"/> 
      </vehicle>
      <vehicle id="49" depart="137.0"> 
        <route edges="e1_in e2_out"/> 
      </vehicle>
      <vehicle id="50" depart="138.0"> 
        <route edges="e1_in e2_out"/> 
      </vehicle>
      <vehicle id="51" depart="140.0"> 
        <route edges="e1_in e4_out"/> 
      </vehicle>
      <vehicle id="52" depart="141.0"> 
        <route edges="e3_in e2_out"/> 
      </vehicle>
      <vehicle id="53" depart="143.0"> 
        <route edges="e1_in e3_out"/> 
      </vehicle>
      <vehicle id="54" depart="143.0"> 
        <route edges="e2_in e4_out"/> 
      </vehicle>
      <vehicle id="55" depart="145.0"> 
        <route edges="e2_in e4_out"/> 
      </vehicle>
      <vehicle id="56" depart="146.0"> 
        <route edges="e1_in e2_out"/> 
      </vehicle>
      <vehicle id="57" depart="146.0"> 
        <route edges="e3_in e2_out"/> 
      </vehicle>
      <vehicle id="58" depart="147.0"> 
        <route edges="e2_in e4_out"/> 
      </vehicle>
      <vehicle id="59" depart="148.0"> 
        <route edges="e3_in e2_out"/> 
      </vehicle>
      <vehicle id="60" depart="148.0"> 
        <route edges="e3_in e4_out"/> 
      </vehicle>
      <vehicle id="61" depart="151.0"> 
        <route edges="e2_in e4_out"/> 
      </vehicle>
      <vehicle id="62" depart="151.0"> 
        <route edges="e1_in e3_out"/> 
      </vehicle>
      <vehicle id="63" depart="152.0"> 
        <route edges="e1_in e3_out"/> 
      </vehicle>
      <vehicle id="64" depart="153.0"> 
        <route edges="e4_in e2_out"/> 
      </vehicle>
      <vehicle id="65" depart="153.0"> 
        <route edges="e1_in e3_out"/> 
      </vehicle>
      <vehicle id="66" depart="154.0"> 
        <route edges="e1_in e3_out"/> 
      </vehicle>
      <vehicle id="67" depart="155.0"> 
        <route edges="e1_in e2_out"/> 
      </vehicle>
      <vehicle id="68" depart="155.0"> 
        <route edges="e4_in e3_out"/> 
      </vehicle>
      <vehicle id="69" depart="156.0"> 
        <route edges="e2_in e4_out"/> 
      </vehicle>
      <vehicle id="70" depart="158.0"> 
        <route edges="e1_in e2_out"/> 
      </vehicle>
      <vehicle id="71" depart="158.0"> 
        <route edges="e1_in e3_out"/> 
      </vehicle>
      <vehicle id="72" depart="159.0"> 
        <route edges="e3_in e1_out"/> 
      </vehicle>
      <vehicle id="73" depart="161.0"> 
        <route edges="e1_in e3_out"/> 
      </vehicle>
      <vehicle id="74" depart="164.0"> 
        <route edges="e2_in e4_out"/> 
      </vehicle>
      <vehicle id="75" depart="165.0"> 
        <route edges="e3_in e4_out"/> 
      </vehicle>
      <vehicle id="76" depart="165.0"> 
        <route edges="e2_in e1_out"/> 
      </vehicle>
      <vehicle id="77" depart="166.0"> 
        <route edges="e2_in e3_out"/> 
      </vehicle>
      <vehicle id="78" depart="167.0"> 
        <route edges="e2_in e1_out"/> 
      </vehicle>
      <vehicle id="79" depart="169.0"> 
        <route edges="e2_in e1_out"/> 
      </vehicle>
      <vehicle id="80" depart="169.0"> 
        <route edges="e4_in e2_out"/> 
      </vehicle>
      <vehicle id="81" depart="172.0"> 
        <route edges="e4_in e1_out"/> 
      </vehicle>
      <vehicle id="82" depart="172.0"> 
        <route edges="e2_in e1_out"/> 
      </vehicle>
      <vehicle id="83" depart="173.0"> 
        <route edges="e3_in e2_out"/> 
      </vehicle>
      <vehicle id="84" depart="173.0"> 
        <route edges="e4_in e2_out"/> 
      </vehicle>
      <vehicle id="85" depart="176.0"> 
        <route edges="e1_in e4_out"/> 
      </vehicle>
      <vehicle id="86" depart="177.0"> 
        <route edges="e3_in e4_out"/> 
      </vehicle>
      <vehicle id="87" depart="178.0"> 
        <route edges="e1_in e2_out"/> 
      </vehicle>
      <vehicle id="88" depart="182.0"> 
        <route edges="e3_in e1_out"/> 
      </vehicle>
      <vehicle id="89" depart="183.0"> 
        <route edges="e4_in e3_out"/> 
      </vehicle>
      <vehicle id="90" depart="184.0"> 
        <route edges="e4_in e2_out"/> 
      </vehicle>
      <vehicle id="91" depart="184.0"> 
        <route edges="e2_in e4_out"/> 
      </vehicle>
      <vehicle id="92" depart="185.0"> 
        <route edges="e3_in e1_out"/> 
      </vehicle>
      <vehicle id="93" depart="186.0"> 
        <route edges="e1_in e2_out"/> 
      </vehicle>
      <vehicle id="94" depart="187.0"> 
        <route edges="e4_in e2_out"/> 
      </vehicle>
      <vehicle id="95" depart="188.0"> 
        <route edges="e2_in e3_out"/> 
      </vehicle>
      <vehicle id="96" depart="191.0"> 
        <route edges="e1_in e4_out"/> 
      </vehicle>
      <vehicle id="97" depart="194.0"> 
        <route edges="e3_in e1_out"/> 
      </vehicle>
      <vehicle id="98" depart="194.0"> 
        <route edges="e4_in e2_out"/> 
      </vehicle>
      <vehicle id="99" depart="195.0"> 
        <route edges="e2_in e3_out"/> 
      </vehicle>
      <vehicle id="100" depart="199.0"> 
        <route edges="e2_in e4_out"/> 
      </vehicle>
      <vehicle id="101" depart="199.0"> 
        <route edges="e3_in e2_out"/> 
      </vehicle>
      <vehicle id="102" depart="201.0"> 
        <route edges="e4_in e2_out"/> 
      </vehicle>
      <vehicle id="103" depart="201.0"> 
        <route edges="e3_in e4_out"/> 
      </vehicle>
      <vehicle id="104" depart="201.0"> 
        <route edges="e4_in e2_out"/> 
      </vehicle>
      <vehicle id="105" depart="202.0"> 
        <route edges="e4_in e3_out"/> 
      </vehicle>
      <vehicle id="106" depart="203.0"> 
        <route edges="e4_in e2_out"/> 
      </vehicle>
      <vehicle id="107" depart="203.0"> 
        <route edges="e4_in e1_out"/> 
      </vehicle>
      <vehicle id="108" depart="204.0"> 
        <route edges="e3_in e2_out"/> 
      </vehicle>
      <vehicle id="109" depart="206.0"> 
        <route edges="e3_in e1_out"/> 
      </vehicle>
      <vehicle id="110" depart="207.0"> 
        <route edges="e1_in e3_out"/> 
      </vehicle>
      <vehicle id="111" depart="208.0"> 
        <route edges="e1_in e2_out"/> 
      </vehicle>
      <vehicle id="112" depart="210.0"> 
        <route edges="e4_in e2_out"/> 
      </vehicle>
      <vehicle id="113" depart="210.0"> 
        <route edges="e4_in e1_out"/> 
      </vehicle>
      <vehicle id="114" depart="210.0"> 
        <route edges="e1_in e3_out"/> 
      </vehicle>
      <vehicle id="115" depart="211.0"> 
        <route edges="e3_in e4_out"/> 
      </vehicle>
      <vehicle id="116" depart="214.0"> 
        <route edges="e4_in e2_out"/> 
      </vehicle>
      <vehicle id="117" depart="215.0"> 
        <route edges="e3_in e2_out"/> 
      </vehicle>
      <vehicle id="118" depart="216.0"> 
        <route edges="e2_in e4_out"/> 
      </vehicle>
      <vehicle id="119" depart="216.0"> 
        <route edges="e3_in e2_out"/> 
      </vehicle>
      <vehicle id="120" depart="217.0"> 
        <route edges="e1_in e4_out"/> 
      </vehicle>
      <vehicle id="121" depart="217.0"> 
        <route edges="e2_in e4_out"/> 
      </vehicle>
      <vehicle id="122" depart="218.0"> 
        <route edges="e3_in e1_out"/> 
      </vehicle>
      <vehicle id="123" depart="218.0"> 
        <route edges="e4_in e2_out"/> 
      </vehicle>
      <vehicle id="124" depart="220.0"> 
        <route edges="e1_in e4_out"/> 
      </vehicle>
      <vehicle id="125" depart="222.0"> 
        <route edges="e2_in e4_out"/> 
      </vehicle>
      <vehicle id="126" depart="222.0"> 
        <route edges="e2_in e3_out"/> 
      </vehicle>
      <vehicle id="127" depart="224.0"> 
        <route edges="e4_in e2_out"/> 
      </vehicle>
      <vehicle id="128" depart="224.0"> 
        <route edges="e1_in e3_out"/> 
      </vehicle>
      <vehicle id="129" depart="224.0"> 
        <route edges="e3_in e4_out"/> 
      </vehicle>
      <vehicle id="130" depart="224.0"> 
        <route edges="e2_in e3_out"/> 
      </vehicle>
      <vehicle id="131" depart="225.0"> 
        <route edges="e4_in e3_out"/> 
      </vehicle>
      <vehicle id="132" depart="225.0"> 
        <route edges="e1_in e3_out"/> 
      </vehicle>
      <vehicle id="133" depart="226.0"> 
        <route edges="e1_in e2_out"/> 
      </vehicle>
      <vehicle id="134" depart="227.0"> 
        <route edges="e4_in e2_out"/> 
      </vehicle>
      <vehicle id="135" depart="230.0"> 
        <route edges="e2_in e1_out"/> 
      </vehicle>
      <vehicle id="136" depart="231.0"> 
        <route edges="e3_in e1_out"/> 
      </vehicle>
      <vehicle id="137" depart="231.0"> 
        <route edges="e3_in e4_out"/> 
      </vehicle>
      <vehicle id="138" depart="231.0"> 
        <route edges="e1_in e2_out"/> 
      </vehicle>
      <vehicle id="139" depart="232.0"> 
        <route edges="e3_in e1_out"/> 
      </vehicle>
      <vehicle id="140" depart="234.0"> 
        <route edges="e2_in e4_out"/> 
      </vehicle>
      <vehicle id="141" depart="234.0"> 
        <route edges="e2_in e4_out"/> 
      </vehicle>
      <vehicle id="142" depart="238.0"> 
        <route edges="e1_in e4_out"/> 
      </vehicle>
      <vehicle id="143" depart="238.0"> 
        <route edges="e3_in e1_out"/> 
      </vehicle>
      <vehicle id="144" depart="239.0"> 
        <route edges="e2_in e1_out"/> 
      </vehicle>
      <vehicle id="145" depart="239.0"> 
        <route edges="e1_in e4_out"/> 
      </vehicle>
      <vehicle id="146" depart="240.0"> 
        <route edges="e3_in e4_out"/> 
      </vehicle>
      <vehicle id="147" depart="242.0"> 
        <route edges="e3_in e1_out"/> 
      </vehicle>
      <vehicle id="148" depart="242.0"> 
        <route edges="e3_in e4_out"/> 
      </vehicle>
      <vehicle id="149" depart="244.0"> 
        <route edges="e3_in e1_out"/> 
      </vehicle>
      <vehicle id="150" depart="244.0"> 
        <route edges="e3_in e1_out"/> 
      </vehicle>
      <vehicle id="151" depart="245.0"> 
        <route edges="e3_in e1_out"/> 
      </vehicle>
      <vehicle id="152" depart="246.0"> 
        <route edges="e1_in e4_out"/> 
      </vehicle>
      <vehicle id="153" depart="246.0"> 
        <route edges="e4_in e3_out"/> 
      </vehicle>
      <vehicle id="154" depart="248.0"> 
        <route edges="e3_in e4_out"/> 
      </vehicle>
      <vehicle id="155" depart="248.0"> 
        <route edges="e4_in e3_out"/> 
      </vehicle>
      <vehicle id="156" depart="249.0"> 
        <route edges="e4_in e1_out"/> 
      </vehicle>
      <vehicle id="157" depart="249.0"> 
        <route edges="e3_in e1_out"/> 
      </vehicle>
      <vehicle id="158" depart="249.0"> 
        <route edges="e3_in e2_out"/> 
      </vehicle>
      <vehicle id="159" depart="249.0"> 
        <route edges="e3_in e1_out"/> 
      </vehicle>
      <vehicle id="160" depart="249.0"> 
        <route edges="e1_in e3_out"/> 
      </vehicle>
      <vehicle id="161" depart="251.0"> 
        <route edges="e4_in e2_out"/> 
      </vehicle>
      <vehicle id="162" depart="251.0"> 
        <route edges="e1_in e2_out"/> 
      </vehicle>
      <vehicle id="163" depart="251.0"> 
        <route edges="e4_in e3_out"/> 
      </vehicle>
      <vehicle id="164" depart="251.0"> 
        <route edges="e2_in e4_out"/> 
      </vehicle>
      <vehicle id="165" depart="253.0"> 
        <route edges="e1_in e3_out"/> 
      </vehicle>
      <vehicle id="166" depart="255.0"> 
        <route edges="e4_in e2_out"/> 
      </vehicle>
      <vehicle id="167" depart="256.0"> 
        <route edges="e2_in e3_out"/> 
      </vehicle>
      <vehicle id="168" depart="257.0"> 
        <route edges="e4_in e2_out"/> 
      </vehicle>
      <vehicle id="169" depart="257.0"> 
        <route edges="e2_in e4_out"/> 
      </vehicle>
      <vehicle id="170" depart="258.0"> 
        <route edges="e2_in e1_out"/> 
      </vehicle>
      <vehicle id="171" depart="258.0"> 
        <route edges="e2_in e1_out"/> 
      </vehicle>
      <vehicle id="172" depart="259.0"> 
        <route edges="e3_in e1_out"/> 
      </vehicle>
      <vehicle id="173" depart="259.0"> 
        <route edges="e3_in e4_out"/> 
      </vehicle>
      <vehicle id="174" depart="260.0"> 
        <route edges="e4_in e1_out"/> 
      </vehicle>
      <vehicle id="175" depart="260.0"> 
        <route edges="e4_in e2_out"/> 
      </vehicle>
      <vehicle id="176" depart="260.0"> 
        <route edges="e3_in e1_out"/> 
      </vehicle>
      <vehicle id="177" depart="261.0"> 
        <route edges="e4_in e2_out"/> 
      </vehicle>
      <vehicle id="178" depart="263.0"> 
        <route edges="e4_in e2_out"/> 
      </vehicle>
      <vehicle id="179" depart="264.0"> 
        <route edges="e3_in e1_out"/> 
      </vehicle>
      <vehicle id="180" depart="265.0"> 
        <route edges="e2_in e1_out"/> 
      </vehicle>
      <vehicle id="181" depart="265.0"> 
        <route edges="e3_in e4_out"/> 
      </vehicle>
      <vehicle id="182" depart="266.0"> 
        <route edges="e1_in e3_out"/> 
      </vehicle>
      <vehicle id="183" depart="266.0"> 
        <route edges="e3_in e2_out"/> 
      </vehicle>
      <vehicle id="184" depart="267.0"> 
        <route edges="e4_in e2_out"/> 
      </vehicle>
      <vehicle id="185" depart="269.0"> 
        <route edges="e4_in e2_out"/> 
      </vehicle>
      <vehicle id="186" depart="269.0"> 
        <route edges="e3_in e4_out"/> 
      </vehicle>
      <vehicle id="187" depart="269.0"> 
        <route edges="e1_in e4_out"/> 
      </vehicle>
      <vehicle id="188" depart="270.0"> 
        <route edges="e1_in e4_out"/> 
      </vehicle>
      <vehicle id="189" depart="271.0"> 
        <route edges="e3_in e4_out"/> 
      </vehicle>
      <vehicle id="190" depart="271.0"> 
        <route edges="e3_in e4_out"/> 
      </vehicle>
      <vehicle id="191" depart="271.0"> 
        <route edges="e4_in e1_out"/> 
      </vehicle>
      <vehicle id="192" depart="272.0"> 
        <route edges="e2_in e1_out"/> 
      </vehicle>
      <vehicle id="193" depart="272.0"> 
        <route edges="e2_in e3_out"/> 
      </vehicle>
      <vehicle id="194" depart="272.0"> 
        <route edges="e1_in e3_out"/> 
      </vehicle>
      <vehicle id="195" depart="273.0"> 
        <route edges="e3_in e2_out"/> 
      </vehicle>
      <vehicle id="196" depart="273.0"> 
        <route edges="e3_in e2_out"/> 
      </vehicle>
      <vehicle id="197" depart="274.0"> 
        <route edges="e2_in e1_out"/> 
      </vehicle>
      <vehicle id="198" depart="274.0"> 
        <route edges="e2_in e4_out"/> 
      </vehicle>
      <vehicle id="199" depart="275.0"> 
        <route edges="e2_in e4_out"/> 
      </vehicle>
      <vehicle id="200" depart="276.0"> 
        <route edges="e4_in e1_out"/> 
      </vehicle>
      <vehicle id="201" depart="277.0"> 
        <route edges="e3_in e2_out"/> 
      </vehicle>
      <vehicle id="202" depart="278.0"> 
        <route edges="e4_in e3_out"/> 
      </vehicle>
      <vehicle id="203" depart="279.0"> 
        <route edges="e3_in e1_out"/> 
      </vehicle>
      <vehicle id="204" depart="283.0"> 
        <route edges="e2_in e1_out"/> 
      </vehicle>
      <vehicle id="205" depart="285.0"> 
        <route edges="e3_in e4_out"/> 
      </vehicle>
      <vehicle id="206" depart="285.0"> 
        <route edges="e4_in e2_out"/> 
      </vehicle>
      <vehicle id="207" depart="286.0"> 
        <route edges="e3_in e1_out"/> 
      </vehicle>
      <vehicle id="208" depart="287.0"> 
        <route edges="e1_in e3_out"/> 
      </vehicle>
      <vehicle id="209" depart="287.0"> 
        <route edges="e2_in e4_out"/> 
      </vehicle>
      <vehicle id="210" depart="287.0"> 
        <route edges="e1_in e3_out"/> 
      </vehicle>
      <vehicle id="211" depart="289.0"> 
        <route edges="e4_in e2_out"/> 
      </vehicle>
      <vehicle id="212" depart="289.0"> 
        <route edges="e1_in e3_out"/> 
      </vehicle>
      <vehicle id="213" depart="289.0"> 
        <route edges="e2_in e1_out"/> 
      </vehicle>
      <vehicle id="214" depart="290.0"> 
        <route edges="e3_in e1_out"/> 
      </vehicle>
      <vehicle id="215" depart="291.0"> 
        <route edges="e1_in e3_out"/> 
      </vehicle>
      <vehicle id="216" depart="292.0"> 
        <route edges="e1_in e4_out"/> 
      </vehicle>
      <vehicle id="217" depart="292.0"> 
        <route edges="e2_in e4_out"/> 
      </vehicle>
      <vehicle id="218" depart="293.0"> 
        <route edges="e3_in e1_out"/> 
      </vehicle>
      <vehicle id="219" depart="293.0"> 
        <route edges="e1_in e3_out"/> 
      </vehicle>
      <vehicle id="220" depart="293.0"> 
        <route edges="e4_in e2_out"/> 
      </vehicle>
      <vehicle id="221" depart="294.0"> 
        <route edges="e2_in e1_out"/> 
      </vehicle>
      <vehicle id="222" depart="294.0"> 
        <route edges="e2_in e1_out"/> 
      </vehicle>
      <vehicle id="223" depart="294.0"> 
        <route edges="e1_in e3_out"/> 
      </vehicle>
      <vehicle id="224" depart="295.0"> 
        <route edges="e3_in e2_out"/> 
      </vehicle>
      <vehicle id="225" depart="296.0"> 
        <route edges="e4_in e3_out"/> 
      </vehicle>
      <vehicle id="226" depart="297.0"> 
        <route edges="e1_in e3_out"/> 
      </vehicle>
      <vehicle id="227" depart="299.0"> 
        <route edges="e1_in e3_out"/> 
      </vehicle>
      <vehicle id="228" depart="301.0"> 
        <route edges="e1_in e3_out"/> 
      </vehicle>
      <vehicle id="229" depart="303.0"> 
        <route edges="e4_in e2_out"/> 
      </vehicle>
      <vehicle id="230" depart="303.0"> 
        <route edges="e4_in e2_out"/> 
      </vehicle>
      <vehicle id="231" depart="303.0"> 
        <route edges="e3_in e1_out"/> 
      </vehicle>
      <vehicle id="232" depart="303.0"> 
        <route edges="e4_in e2_out"/> 
      </vehicle>
      <vehicle id="233" depart="304.0"> 
        <route edges="e2_in e4_out"/> 
      </vehicle>
      <vehicle id="234" depart="304.0"> 
        <route edges="e1_in e4_out"/> 
      </vehicle>
      <vehicle id="235" depart="305.0"> 
        <route edges="e2_in e4_out"/> 
      </vehicle>
      <vehicle id="236" depart="305.0"> 
        <route edges="e1_in e2_out"/> 
      </vehicle>
      <vehicle id="237" depart="306.0"> 
        <route edges="e3_in e1_out"/> 
      </vehicle>
      <vehicle id="238" depart="308.0"> 
        <route edges="e3_in e1_out"/> 
      </vehicle>
      <vehicle id="239" depart="308.0"> 
        <route edges="e4_in e3_out"/> 
      </vehicle>
      <vehicle id="240" depart="309.0"> 
        <route edges="e3_in e2_out"/> 
      </vehicle>
      <vehicle id="241" depart="310.0"> 
        <route edges="e2_in e4_out"/> 
      </vehicle>
      <vehicle id="242" depart="310.0"> 
        <route edges="e4_in e1_out"/> 
      </vehicle>
      <vehicle id="243" depart="310.0"> 
        <route edges="e3_in e1_out"/> 
      </vehicle>
      <vehicle id="244" depart="310.0"> 
        <route edges="e1_in e4_out"/> 
      </vehicle>
      <vehicle id="245" depart="311.0"> 
        <route edges="e4_in e2_out"/> 
      </vehicle>
      <vehicle id="246" depart="314.0"> 
        <route edges="e2_in e4_out"/> 
      </vehicle>
      <vehicle id="247" depart="315.0"> 
        <route edges="e3_in e2_out"/> 
      </vehicle>
      <vehicle id="248" depart="315.0"> 
        <route edges="e3_in e1_out"/> 
      </vehicle>
      <vehicle id="249" depart="316.0"> 
        <route edges="e3_in e1_out"/> 
      </vehicle>
      <vehicle id="250" depart="316.0"> 
        <route edges="e4_in e2_out"/> 
      </vehicle>
      <vehicle id="251" depart="317.0"> 
        <route edges="e4_in e3_out"/> 
      </vehicle>
      <vehicle id="252" depart="317.0"> 
        <route edges="e3_in e1_out"/> 
      </vehicle>
      <vehicle id="253" depart="317.0"> 
        <route edges="e4_in e3_out"/> 
      </vehicle>
      <vehicle id="254" depart="317.0"> 
        <route edges="e2_in e3_out"/> 
      </vehicle>
      <vehicle id="255" depart="317.0"> 
        <route edges="e4_in e2_out"/> 
      </vehicle>
      <vehicle id="256" depart="318.0"> 
        <route edges="e2_in e3_out"/> 
      </vehicle>
      <vehicle id="257" depart="318.0"> 
        <route edges="e2_in e4_out"/> 
      </vehicle>
      <vehicle id="258" depart="319.0"> 
        <route edges="e4_in e1_out"/> 
      </vehicle>
      <vehicle id="259" depart="319.0"> 
        <route edges="e3_in e1_out"/> 
      </vehicle>
      <vehicle id="260" depart="321.0"> 
        <route edges="e3_in e1_out"/> 
      </vehicle>
      <vehicle id="261" depart="324.0"> 
        <route edges="e1_in e3_out"/> 
      </vehicle>
      <vehicle id="262" depart="326.0"> 
        <route edges="e2_in e3_out"/> 
      </vehicle>
      <vehicle id="263" depart="327.0"> 
        <route edges="e1_in e4_out"/> 
      </vehicle>
      <vehicle id="264" depart="327.0"> 
        <route edges="e2_in e1_out"/> 
      </vehicle>
      <vehicle id="265" depart="328.0"> 
        <route edges="e2_in e4_out"/> 
      </vehicle>
      <vehicle id="266" depart="329.0"> 
        <route edges="e3_in e4_out"/> 
      </vehicle>
      <vehicle id="267" depart="329.0"> 
        <route edges="e4_in e1_out"/> 
      </vehicle>
      <vehicle id="268" depart="330.0"> 
        <route edges="e3_in e2_out"/> 
      </vehicle>
      <vehicle id="269" depart="331.0"> 
        <route edges="e4_in e3_out"/> 
      </vehicle>
      <vehicle id="270" depart="332.0"> 
        <route edges="e2_in e3_out"/> 
      </vehicle>
      <vehicle id="271" depart="332.0"> 
        <route edges="e3_in e2_out"/> 
      </vehicle>
      <vehicle id="272" depart="332.0"> 
        <route edges="e2_in e4_out"/> 
      </vehicle>
      <vehicle id="273" depart="332.0"> 
        <route edges="e2_in e4_out"/> 
      </vehicle>
      <vehicle id="274" depart="333.0"> 
        <route edges="e2_in e4_out"/> 
      </vehicle>
      <vehicle id="275" depart="333.0"> 
        <route edges="e4_in e3_out"/> 
      </vehicle>
      <vehicle id="276" depart="334.0"> 
        <route edges="e4_in e2_out"/> 
      </vehicle>
      <vehicle id="277" depart="334.0"> 
        <route edges="e3_in e1_out"/> 
      </vehicle>
      <vehicle id="278" depart="334.0"> 
        <route edges="e4_in e1_out"/> 
      </vehicle>
      <vehicle id="279" depart="335.0"> 
        <route edges="e1_in e3_out"/> 
      </vehicle>
      <vehicle id="280" depart="335.0"> 
        <route edges="e3_in e2_out"/> 
      </vehicle>
      <vehicle id="281" depart="335.0"> 
        <route edges="e2_in e4_out"/> 
      </vehicle>
      <vehicle id="282" depart="336.0"> 
        <route edges="e2_in e4_out"/> 
      </vehicle>
      <vehicle id="283" depart="336.0"> 
        <route edges="e4_in e3_out"/> 
      </vehicle>
      <vehicle id="284" depart="336.0"> 
        <route edges="e4_in e1_out"/> 
      </vehicle>
      <vehicle id="285" depart="336.0"> 
        <route edges="e1_in e3_out"/> 
      </vehicle>
      <vehicle id="286" depart="337.0"> 
        <route edges="e3_in e4_out"/> 
      </vehicle>
      <vehicle id="287" depart="337.0"> 
        <route edges="e2_in e4_out"/> 
      </vehicle>
      <vehicle id="288" depart="338.0"> 
        <route edges="e3_in e1_out"/> 
      </vehicle>
      <vehicle id="289" depart="339.0"> 
        <route edges="e1_in e2_out"/> 
      </vehicle>
      <vehicle id="290" depart="339.0"> 
        <route edges="e3_in e4_out"/> 
      </vehicle>
      <vehicle id="291" depart="339.0"> 
        <route edges="e2_in e4_out"/> 
      </vehicle>
      <vehicle id="292" depart="339.0"> 
        <route edges="e1_in e3_out"/> 
      </vehicle>
      <vehicle id="293" depart="340.0"> 
        <route edges="e3_in e4_out"/> 
      </vehicle>
      <vehicle id="294" depart="344.0"> 
        <route edges="e3_in e1_out"/> 
      </vehicle>
      <vehicle id="295" depart="344.0"> 
        <route edges="e2_in e4_out"/> 
      </vehicle>
      <vehicle id="296" depart="345.0"> 
        <route edges="e3_in e4_out"/> 
      </vehicle>
      <vehicle id="297" depart="345.0"> 
        <route edges="e3_in e4_out"/> 
      </vehicle>
      <vehicle id="298" depart="345.0"> 
        <route edges="e1_in e2_out"/> 
      </vehicle>
      <vehicle id="299" depart="346.0"> 
        <route edges="e3_in e1_out"/> 
      </vehicle>
      <vehicle id="300" depart="346.0"> 
        <route edges="e4_in e2_out"/> 
      </vehicle>
      <vehicle id="301" depart="346.0"> 
        <route edges="e1_in e2_out"/> 
      </vehicle>
      <vehicle id="302" depart="347.0"> 
        <route edges="e2_in e4_out"/> 
      </vehicle>
      <vehicle id="303" depart="347.0"> 
        <route edges="e4_in e2_out"/> 
      </vehicle>
      <vehicle id="304" depart="347.0"> 
        <route edges="e3_in e1_out"/> 
      </vehicle>
      <vehicle id="305" depart="348.0"> 
        <route edges="e1_in e2_out"/> 
      </vehicle>
      <vehicle id="306" depart="348.0"> 
        <route edges="e1_in e2_out"/> 
      </vehicle>
      <vehicle id="307" depart="348.0"> 
        <route edges="e1_in e3_out"/> 
      </vehicle>
      <vehicle id="308" depart="349.0"> 
        <route edges="e1_in e3_out"/> 
      </vehicle>
      <vehicle id="309" depart="350.0"> 
        <route edges="e3_in e1_out"/> 
      </vehicle>
      <vehicle id="310" depart="351.0"> 