<?xml version="1.0" encoding="UTF-8"?>
<!-- generated on 2020-07-26 21:18:42.625607 by randomTrips.py v1_6_0+0711-584f973708
  options: <doubleminus>binomial=1000 -n intersection_3.net.xml -r intersection_3.rou.xml -e 3600 -p 0.1
-->
<routes xmlns:xsi="http://www.w3.org/2001/XMLSchema-instance" xsi:noNamespaceSchemaLocation="http://sumo.dlr.de/xsd/routes_file.xsd">
    <trip id="0" depart="0.00" from="e4_in" to="e3_out"/>
    <trip id="1" depart="0.00" from="e2_in" to="e1_out"/>
    <trip id="2" depart="0.00" from="e4_in" to="e2_out"/>
    <trip id="3" depart="0.00" from="e4_in" to="e3_out"/>
    <trip id="4" depart="0.00" from="e1_in" to="e4_out"/>
    <trip id="5" depart="0.00" from="e4_in" to="e3_out"/>
    <trip id="6" depart="0.00" from="e2_in" to="e2_out"/>
    <trip id="7" depart="0.00" from="e4_in" to="e4_out"/>
    <trip id="8" depart="0.00" from="e2_in" to="e4_out"/>
    <trip id="9" depart="0.00" from="e2_in" to="e3_out"/>
    <trip id="10" depart="0.00" from="e4_in" to="e4_out"/>
    <trip id="11" depart="1.00" from="e4_in" to="e1_out"/>
    <trip id="12" depart="1.00" from="e4_in" to="e3_out"/>
    <trip id="13" depart="1.00" from="e2_in" to="e1_out"/>
    <trip id="14" depart="1.00" from="e3_in" to="e1_out"/>
    <trip id="15" depart="1.00" from="e1_in" to="e2_out"/>
    <trip id="16" depart="1.00" from="e3_in" to="e4_out"/>
    <trip id="17" depart="1.00" from="e3_in" to="e1_out"/>
    <trip id="18" depart="1.00" from="e1_in" to="e2_out"/>
    <trip id="19" depart="2.00" from="e3_in" to="e2_out"/>
    <trip id="20" depart="2.00" from="e3_in" to="e1_out"/>
    <trip id="21" depart="2.00" from="e1_in" to="e2_out"/>
    <trip id="22" depart="2.00" from="e2_in" to="e2_out"/>
    <trip id="23" depart="2.00" from="e1_in" to="e4_out"/>
    <trip id="24" depart="2.00" from="e4_in" to="e3_out"/>
    <trip id="25" depart="2.00" from="e4_in" to="e1_out"/>
    <trip id="26" depart="2.00" from="e2_in" to="e1_out"/>
    <trip id="27" depart="2.00" from="e3_in" to="e4_out"/>
    <trip id="28" depart="2.00" from="e3_in" to="e2_out"/>
    <trip id="29" depart="2.00" from="e1_in" to="e3_out"/>
    <trip id="30" depart="2.00" from="e2_in" to="e1_out"/>
    <trip id="31" depart="2.00" from="e3_in" to="e4_out"/>
    <trip id="32" depart="2.00" from="e4_in" to="e1_out"/>
    <trip id="33" depart="2.00" from="e2_in" to="e3_out"/>
    <trip id="34" depart="3.00" from="e4_in" to="e3_out"/>
    <trip id="35" depart="3.00" from="e2_in" to="e4_out"/>
    <trip id="36" depart="3.00" from="e2_in" to="e4_out"/>
    <trip id="37" depart="3.00" from="e3_in" to="e4_out"/>
    <trip id="38" depart="3.00" from="e1_in" to="e3_out"/>
    <trip id="39" depart="3.00" from="e3_in" to="e2_out"/>
    <trip id="40" depart="3.00" from="e1_in" to="e3_out"/>
    <trip id="41" depart="3.00" from="e3_in" to="e3_out"/>
    <trip id="42" depart="3.00" from="e1_in" to="e1_out"/>
    <trip id="43" depart="3.00" from="e3_in" to="e3_out"/>
    <trip id="44" depart="3.00" from="e1_in" to="e1_out"/>
    <trip id="45" depart="4.00" from="e1_in" to="e4_out"/>
    <trip id="46" depart="4.00" from="e4_in" to="e1_out"/>
    <trip id="47" depart="4.00" from="e4_in" to="e4_out"/>
    <trip id="48" depart="4.00" from="e4_in" to="e4_out"/>
    <trip id="49" depart="4.00" from="e2_in" to="e2_out"/>
    <trip id="50" depart="4.00" from="e2_in" to="e2_out"/>
    <trip id="51" depart="4.00" from="e1_in" to="e4_out"/>
    <trip id="52" depart="4.00" from="e3_in" to="e2_out"/>
    <trip id="53" depart="4.00" from="e2_in" to="e2_out"/>
    <trip id="54" depart="4.00" from="e4_in" to="e1_out"/>
    <trip id="55" depart="4.00" from="e1_in" to="e3_out"/>
    <trip id="56" depart="4.00" from="e3_in" to="e2_out"/>
    <trip id="57" depart="4.00" from="e4_in" to="e3_out"/>
    <trip id="58" depart="5.00" from="e1_in" to="e1_out"/>
    <trip id="59" depart="5.00" from="e4_in" to="e2_out"/>
    <trip id="60" depart="5.00" from="e4_in" to="e4_out"/>
    <trip id="61" depart="5.00" from="e1_in" to="e1_out"/>
    <trip id="62" depart="5.00" from="e1_in" to="e1_out"/>
    <trip id="63" depart="5.00" from="e4_in" to="e1_out"/>
    <trip id="64" depart="5.00" from="e3_in" to="e4_out"/>
    <trip id="65" depart="5.00" from="e2_in" to="e4_out"/>
    <trip id="66" depart="6.00" from="e4_in" to="e3_out"/>
    <trip id="67" depart="6.00" from="e1_in" to="e1_out"/>
    <trip id="68" depart="6.00" from="e3_in" to="e3_out"/>
    <trip id="69" depart="6.00" from="e4_in" to="e4_out"/>
    <trip id="70" depart="6.00" from="e2_in" to="e3_out"/>
    <trip id="71" depart="7.00" from="e2_in" to="e4_out"/>
    <trip id="72" depart="7.00" from="e4_in" to="e2_out"/>
    <trip id="73" depart="7.00" from="e2_in" to="e4_out"/>
    <trip id="74" depart="7.00" from="e2_in" to="e4_out"/>
    <trip id="75" depart="7.00" from="e1_in" to="e1_out"/>
    <trip id="76" depart="7.00" from="e3_in" to="e3_out"/>
    <trip id="77" depart="7.00" from="e1_in" to="e1_out"/>
    <trip id="78" depart="7.00" from="e2_in" to="e4_out"/>
    <trip id="79" depart="7.00" from="e4_in" to="e4_out"/>
    <trip id="80" depart="7.00" from="e1_in" to="e1_out"/>
    <trip id="81" depart="7.00" from="e4_in" to="e4_out"/>
    <trip id="82" depart="7.00" from="e4_in" to="e1_out"/>
    <trip id="83" depart="7.00" from="e1_in" to="e3_out"/>
    <trip id="84" depart="7.00" from="e3_in" to="e4_out"/>
    <trip id="85" depart="7.00" from="e3_in" to="e4_out"/>
    <trip id="86" depart="7.00" from="e1_in" to="e3_out"/>
    <trip id="87" depart="8.00" from="e3_in" to="e3_out"/>
    <trip id="88" depart="8.00" from="e2_in" to="e4_out"/>
    <trip id="89" depart="8.00" from="e2_in" to="e4_out"/>
    <trip id="90" depart="8.00" from="e3_in" to="e1_out"/>
    <trip id="91" depart="8.00" from="e4_in" to="e1_out"/>
    <trip id="92" depart="8.00" from="e2_in" to="e3_out"/>
    <trip id="93" depart="8.00" from="e4_in" to="e1_out"/>
    <trip id="94" depart="8.00" from="e4_in" to="e1_out"/>
    <trip id="95" depart="8.00" from="e2_in" to="e2_out"/>
    <trip id="96" depart="8.00" from="e4_in" to="e2_out"/>
    <trip id="97" depart="8.00" from="e4_in" to="e3_out"/>
    <trip id="98" depart="8.00" from="e2_in" to="e4_out"/>
    <trip id="99" depart="9.00" from="e2_in" to="e1_out"/>
    <trip id="100" depart="9.00" from="e2_in" to="e2_out"/>
    <trip id="101" depart="9.00" from="e4_in" to="e4_out"/>
    <trip id="102" depart="9.00" from="e2_in" to="e3_out"/>
    <trip id="103" depart="9.00" from="e3_in" to="e1_out"/>
    <trip id="104" depart="10.00" from="e4_in" to="e1_out"/>
    <trip id="105" depart="10.00" from="e1_in" to="e2_out"/>
    <trip id="106" depart="10.00" from="e1_in" to="e3_out"/>
    <trip id="107" depart="10.00" from="e3_in" to="e4_out"/>
    <trip id="108" depart="10.00" from="e2_in" to="e1_out"/>
    <trip id="109" depart="10.00" from="e2_in" to="e1_out"/>
    <trip id="110" depart="10.00" from="e2_in" to="e2_out"/>
    <trip id="111" depart="10.00" from="e2_in" to="e2_out"/>
    <trip id="112" depart="10.00" from="e1_in" to="e4_out"/>
    <trip id="113" depart="11.00" from="e1_in" to="e3_out"/>
    <trip id="114" depart="11.00" from="e4_in" to="e3_out"/>
    <trip id="115" depart="11.00" from="e4_in" to="e1_out"/>
    <trip id="116" depart="11.00" from="e4_in" to="e2_out"/>
    <trip id="117" depart="11.00" from="e2_in" to="e3_out"/>
    <trip id="118" depart="11.00" from="e3_in" to="e3_out"/>
    <trip id="119" depart="11.00" from="e2_in" to="e1_out"/>
    <trip id="120" depart="12.00" from="e1_in" to="e4_out"/>
    <trip id="121" depart="12.00" from="e4_in" to="e1_out"/>
    <trip id="122" depart="12.00" from="e1_in" to="e4_out"/>
    <trip id="123" depart="12.00" from="e4_in" to="e1_out"/>
    <trip id="124" depart="12.00" from="e1_in" to="e1_out"/>
    <trip id="125" depart="12.00" from="e3_in" to="e3_out"/>
    <trip id="126" depart="12.00" from="e1_in" to="e1_out"/>
    <trip id="127" depart="12.00" from="e2_in" to="e3_out"/>
    <trip id="128" depart="12.00" from="e4_in" to="e3_out"/>
    <trip id="129" depart="13.00" from="e4_in" to="e4_out"/>
    <trip id="130" depart="13.00" from="e4_in" to="e1_out"/>
    <trip id="131" depart="13.00" from="e1_in" to="e4_out"/>
    <trip id="132" depart="13.00" from="e2_in" to="e3_out"/>
    <trip id="133" depart="13.00" from="e4_in" to="e4_out"/>
    <trip id="134" depart="13.00" from="e2_in" to="e4_out"/>
    <trip id="135" depart="13.00" from="e1_in" to="e4_out"/>
    <trip id="136" depart="13.00" from="e3_in" to="e2_out"/>
    <trip id="137" depart="13.00" from="e1_in" to="e1_out"/>
    <trip id="138" depart="13.00" from="e4_in" to="e4_out"/>
    <trip id="139" depart="13.00" from="e2_in" to="e4_out"/>
    <trip id="140" depart="13.00" from="e1_in" to="e4_out"/>
    <trip id="141" depart="13.00" from="e2_in" to="e4_out"/>
    <trip id="142" depart="13.00" from="e3_in" to="e2_out"/>
    <trip id="143" depart="14.00" from="e4_in" to="e2_out"/>
    <trip id="144" depart="14.00" from="e1_in" to="e1_out"/>
    <trip id="145" depart="14.00" from="e3_in" to="e4_out"/>
    <trip id="146" depart="14.00" from="e2_in" to="e1_out"/>
    <trip id="147" depart="14.00" from="e3_in" to="e2_out"/>
    <trip id="148" depart="14.00" from="e3_in" to="e1_out"/>
    <trip id="149" depart="14.00" from="e2_in" to="e2_out"/>
    <trip id="150" depart="14.00" from="e3_in" to="e3_out"/>
    <trip id="151" depart="14.00" from="e3_in" to="e1_out"/>
    <trip id="152" depart="15.00" from="e3_in" to="e3_out"/>
    <trip id="153" depart="15.00" from="e2_in" to="e1_out"/>
    <trip id="154" depart="15.00" from="e2_in" to="e3_out"/>
    <trip id="155" depart="15.00" from="e2_in" to="e1_out"/>
    <trip id="156" depart="15.00" from="e1_in" to="e1_out"/>
    <trip id="157" depart="15.00" from="e2_in" to="e2_out"/>
    <trip id="158" depart="15.00" from="e3_in" to="e4_out"/>
    <trip id="159" depart="15.00" from="e1_in" to="e3_out"/>
    <trip id="160" depart="15.00" from="e1_in" to="e4_out"/>
    <trip id="161" depart="16.00" from="e4_in" to="e4_out"/>
    <trip id="162" depart="16.00" from="e1_in" to="e3_out"/>
    <trip id="163" depart="16.00" from="e1_in" to="e1_out"/>
    <trip id="164" depart="16.00" from="e2_in" to="e4_out"/>
    <trip id="165" depart="16.00" from="e2_in" to="e4_out"/>
    <trip id="166" depart="16.00" from="e2_in" to="e2_out"/>
    <trip id="167" depart="16.00" from="e4_in" to="e3_out"/>
    <trip id="168" depart="16.00" from="e2_in" to="e1_out"/>
    <trip id="169" depart="17.00" from="e3_in" to="e2_out"/>
    <trip id="170" depart="17.00" from="e2_in" to="e2_out"/>
    <trip id="171" depart="17.00" from="e1_in" to="e2_out"/>
    <trip id="172" depart="17.00" from="e2_in" to="e3_out"/>
    <trip id="173" depart="17.00" from="e4_in" to="e3_out"/>
    <trip id="174" depart="17.00" from="e3_in" to="e1_out"/>
    <trip id="175" depart="17.00" from="e4_in" to="e1_out"/>
    <trip id="176" depart="17.00" from="e4_in" to="e1_out"/>
    <trip id="177" depart="18.00" from="e1_in" to="e4_out"/>
    <trip id="178" depart="18.00" from="e3_in" to="e2_out"/>
    <trip id="179" depart="18.00" from="e4_in" to="e3_out"/>
    <trip id="180" depart="18.00" from="e2_in" to="e2_out"/>
    <trip id="181" depart="18.00" from="e4_in" to="e3_out"/>
    <trip id="182" depart="18.00" from="e4_in" to="e4_out"/>
    <trip id="183" depart="18.00" from="e4_in" to="e2_out"/>
    <trip id="184" depart="18.00" from="e4_in" to="e2_out"/>
    <trip id="185" depart="18.00" from="e1_in" to="e2_out"/>
    <trip id="186" depart="18.00" from="e1_in" to="e3_out"/>
    <trip id="187" depart="18.00" from="e4_in" to="e1_out"/>
    <trip id="188" depart="18.00" from="e2_in" to="e3_out"/>
    <trip id="189" depart="18.00" from="e2_in" to="e1_out"/>
    <trip id="190" depart="18.00" from="e1_in" to="e1_out"/>
    <trip id="191" depart="18.00" from="e1_in" to="e1_out"/>
    <trip id="192" depart="18.00" from="e3_in" to="e3_out"/>
    <trip id="193" depart="19.00" from="e2_in" to="e3_out"/>
    <trip id="194" depart="19.00" from="e3_in" to="e1_out"/>
    <trip id="195" depart="19.00" from="e4_in" to="e2_out"/>
    <trip id="196" depart="19.00" from="e1_in" to="e1_out"/>
    <trip id="197" depart="19.00" from="e1_in" to="e2_out"/>
    <trip id="198" depart="19.00" from="e4_in" to="e3_out"/>
    <trip id="199" depart="19.00" from="e4_in" to="e1_out"/>
    <trip id="200" depart="19.00" from="e1_in" to="e3_out"/>
    <trip id="201" depart="19.00" from="e1_in" to="e3_out"/>
    <trip id="202" depart="19.00" from="e3_in" to="e4_out"/>
    <trip id="203" depart="19.00" from="e1_in" to="e2_out"/>
    <trip id="204" depart="19.00" from="e3_in" to="e2_out"/>
    <trip id="205" depart="19.00" from="e1_in" to="e4_out"/>
    <trip id="206" depart="20.00" from="e2_in" to="e3_out"/>
    <trip id="207" depart="20.00" from="e2_in" to="e3_out"/>
    <trip id="208" depart="20.00" from="e3_in" to="e4_out"/>
    <trip id="209" depart="20.00" from="e4_in" to="e4_out"/>
    <trip id="210" depart="20.00" from="e1_in" to="e3_out"/>
    <trip id="211" depart="20.00" from="e4_in" to="e2_out"/>
    <trip id="212" depart="20.00" from="e1_in" to="e4_out"/>
    <trip id="213" depart="20.00" from="e2_in" to="e2_out"/>
    <trip id="214" depart="20.00" from="e2_in" to="e3_out"/>
    <trip id="215" depart="20.00" from="e2_in" to="e2_out"/>
    <trip id="216" depart="20.00" from="e1_in" to="e3_out"/>
    <trip id="217" depart="20.00" from="e3_in" to="e1_out"/>
    <trip id="218" depart="20.00" from="e2_in" to="e3_out"/>
    <trip id="219" depart="20.00" from="e3_in" to="e1_out"/>
    <trip id="220" depart="20.00" from="e3_in" to="e3_out"/>
    <trip id="221" depart="21.00" from="e3_in" to="e2_out"/>
    <trip id="222" depart="21.00" from="e4_in" to="e4_out"/>
    <trip id="223" depart="21.00" from="e3_in" to="e1_out"/>
    <trip id="224" depart="21.00" from="e3_in" to="e4_out"/>
    <trip id="225" depart="21.00" from="e1_in" to="e3_out"/>
    <trip id="226" depart="21.00" from="e3_in" to="e3_out"/>
    <trip id="227" depart="21.00" from="e4_in" to="e3_out"/>
    <trip id="228" depart="21.00" from="e2_in" to="e1_out"/>
    <trip id="229" depart="21.00" from="e1_in" to="e2_out"/>
    <trip id="230" depart="21.00" from="e4_in" to="e4_out"/>
    <trip id="231" depart="21.00" from="e2_in" to="e3_out"/>
    <trip id="232" depart="22.00" from="e1_in" to="e3_out"/>
    <trip id="233" depart="22.00" from="e4_in" to="e3_out"/>
    <trip id="234" depart="22.00" from="e4_in" to="e3_out"/>
    <trip id="235" depart="22.00" from="e3_in" to="e4_out"/>
    <trip id="236" depart="22.00" from="e4_in" to="e2_out"/>
    <trip id="237" depart="22.00" from="e2_in" to="e1_out"/>
    <trip id="238" depart="22.00" from="e1_in" to="e1_out"/>
    <trip id="239" depart="22.00" from="e1_in" to="e1_out"/>
    <trip id="240" depart="22.00" from="e1_in" to="e2_out"/>
    <trip id="241" depart="22.00" from="e3_in" to="e1_out"/>
    <trip id="242" depart="22.00" from="e2_in" to="e1_out"/>
    <trip id="243" depart="22.00" from="e4_in" to="e4_out"/>
    <trip id="244" depart="22.00" from="e1_in" to="e1_out"/>
    <trip id="245" depart="22.00" from="e1_in" to="e2_out"/>
    <trip id="246" depart="22.00" from="e4_in" to="e2_out"/>
    <trip id="247" depart="23.00" from="e4_in" to="e3_out"/>
    <trip id="248" depart="23.00" from="e4_in" to="e4_out"/>
    <trip id="249" depart="23.00" from="e2_in" to="e3_out"/>
    <trip id="250" depart="23.00" from="e2_in" to="e3_out"/>
    <trip id="251" depart="23.00" from="e3_in" to="e3_out"/>
    <trip id="252" depart="23.00" from="e2_in" to="e2_out"/>
    <trip id="253" depart="23.00" from="e3_in" to="e1_out"/>
    <trip id="254" depart="23.00" from="e4_in" to="e1_out"/>
    <trip id="255" depart="23.00" from="e3_in" to="e2_out"/>
    <trip id="256" depart="23.00" from="e4_in" to="e2_out"/>
    <trip id="257" depart="24.00" from="e4_in" to="e2_out"/>
    <trip id="258" depart="24.00" from="e3_in" to="e2_out"/>
    <trip id="259" depart="24.00" from="e2_in" to="e1_out"/>
    <trip id="260" depart="24.00" from="e4_in" to="e4_out"/>
    <trip id="261" depart="24.00" from="e2_in" to="e4_out"/>
    <trip id="262" depart="24.00" from="e1_in" to="e3_out"/>
    <trip id="263" depart="24.00" from="e2_in" to="e2_out"/>
    <trip id="264" depart="25.00" from="e1_in" to="e4_out"/>
    <trip id="265" depart="25.00" from="e1_in" to="e2_out"/>
    <trip id="266" depart="25.00" from="e1_in" to="e2_out"/>
    <trip id="267" depart="25.00" from="e1_in" to="e2_out"/>
    <trip id="268" depart="25.00" from="e3_in" to="e2_out"/>
    <trip id="269" depart="25.00" from="e2_in" to="e3_out"/>
    <trip id="270" depart="25.00" from="e1_in" to="e3_out"/>
    <trip id="271" depart="26.00" from="e2_in" to="e1_out"/>
    <trip id="272" depart="26.00" from="e3_in" to="e3_out"/>
    <trip id="273" depart="26.00" from="e1_in" to="e2_out"/>
    <trip id="274" depart="26.00" from="e2_in" to="e1_out"/>
    <trip id="275" depart="26.00" from="e3_in" to="e4_out"/>
    <trip id="276" depart="26.00" from="e4_in" to="e1_out"/>
    <trip id="277" depart="26.00" from="e4_in" to="e3_out"/>
    <trip id="278" depart="26.00" from="e3_in" to="e2_out"/>
    <trip id="279" depart="26.00" from="e3_in" to="e4_out"/>
    <trip id="280" depart="27.00" from="e4_in" to="e3_out"/>
    <trip id="281" depart="27.00" from="e1_in" to="e1_out"/>
    <trip id="282" depart="27.00" from="e4_in" to="e2_out"/>
    <trip id="283" depart="27.00" from="e3_in" to="e2_out"/>
    <trip id="284" depart="27.00" from="e1_in" to="e1_out"/>
    <trip id="285" depart="27.00" from="e3_in" to="e1_out"/>
    <trip id="286" depart="27.00" from="e2_in" to="e2_out"/>
    <trip id="287" depart="27.00" from="e1_in" to="e2_out"/>
    <trip id="288" depart="27.00" from="e3_in" to="e3_out"/>
    <trip id="289" depart="27.00" from="e3_in" to="e1_out"/>
    <trip id="290" depart="27.00" from="e3_in" to="e2_out"/>
    <trip id="291" depart="27.00" from="e4_in" to="e4_out"/>
    <trip id="292" depart="27.00" from="e4_in" to="e2_out"/>
    <trip id="293" depart="27.00" from="e1_in" to="e1_out"/>
    <trip id="294" depart="27.00" from="e4_in" to="e2_out"/>
    <trip id="295" depart="28.00" from="e3_in" to="e3_out"/>
    <trip id="296" depart="28.00" from="e1_in" to="e2_out"/>
    <trip id="297" depart="28.00" from="e4_in" to="e4_out"/>
    <trip id="298" depart="28.00" from="e1_in" to="e2_out"/>
    <trip id="299" depart="28.00" from="e3_in" to="e1_out"/>
    <trip id="300" depart="28.00" from="e3_in" to="e1_out"/>
    <trip id="301" depart="29.00" from="e2_in" to="e4_out"/>
    <trip id="302" depart="29.00" from="e4_in" to="e3_out"/>
    <trip id="303" depart="29.00" from="e4_in" to="e1_out"/>
    <trip id="304" depart="29.00" from="e1_in" to="e2_out"/>
    <trip id="305" depart="29.00" from="e2_in" to="e3_out"/>
    <trip id="306" depart="29.00" from="e1_in" to="e1_out"/>
    <trip id="307" depart="29.00" from="e1_in" to="e2_out"/>
    <trip id="308" depart="29.00" from="e4_in" to="e2_out"/>
    <trip id="309" depart="29.00" from="e1_in" to="e2_out"/>
    <trip id="310" depart="29.00" from="e4_in" to="e2_out"/>
    <trip id="311" depart="29.00" from="e3_in" to="e3_out"/>
    <trip id="312" depart="29.00" from="e4_in" to="e1_out"/>
    <trip id="313" depart="30.00" from="e4_in" to="e3_out"/>
    <trip id="314" depart="30.00" from="e3_in" to="e2_out"/>
    <trip id="315" depart="30.00" from="e1_in" to="e2_out"/>
    <trip id="316" depart="30.00" from="e4_in" to="e3_out"/>
    <trip id="317" depart="30.00" from="e3_in" to="e1_out"/>
    <trip id="318" depart="30.00" from="e1_in" to="e3_out"/>
    <trip id="319" depart="30.00" from="e4_in" to="e2_out"/>
    <trip id="320" depart="30.00" from="e1_in" to="e4_out"/>
    <trip id="321" depart="30.00" from="e4_in" to="e2_out"/>
    <trip id="322" depart="30.00" from="e2_in" to="e1_out"/>
    <trip id="323" depart="30.00" from="e4_in" to="e4_out"/>
    <trip id="324" depart="30.00" from="e2_in" to="e1_out"/>
    <trip id="325" depart="31.00" from="e4_in" to="e4_out"/>
    <trip id="326" depart="31.00" from="e4_in" to="e1_out"/>
    <trip id="327" depart="31.00" from="e1_in" to="e4_out"/>
    <trip id="328" depart="31.00" from="e2_in" to="e1_out"/>
    <trip id="329" depart="31.00" from="e4_in" to="e3_out"/>
    <trip id="330" depart="31.00" from="e3_in" to="e4_out"/>
    <trip id="331" depart="32.00" from="e1_in" to="e4_out"/>
    <trip id="332" depart="32.00" from="e1_in" to="e1_out"/>
    <trip id="333" depart="32.00" from="e3_in" to="e4_out"/>
    <trip id="334" depart="32.00" from="e3_in" to="e3_out"/>
    <trip id="335" depart="32.00" from="e4_in" to="e4_out"/>
    <trip id="336" depart="32.00" from="e3_in" to="e4_out"/>
    <trip id="337" depart="32.00" from="e3_in" to="e4_out"/>
    <trip id="338" depart="32.00" from="e4_in" to="e1_out"/>
    <trip id="339" depart="32.00" from="e2_in" to="e2_out"/>
    <trip id="340" depart="32.00" from="e1_in" to="e4_out"/>
    <trip id="341" depart="32.00" from="e4_in" to="e3_out"/>
    <trip id="342" depart="33.00" from="e1_in" to="e3_out"/>
    <trip id="343" depart="33.00" from="e3_in" to="e1_out"/>
    <trip id="344" depart="33.00" from="e1_in" to="e1_out"/>
    <trip id="345" depart="33.00" from="e2_in" to="e2_out"/>
    <trip id="346" depart="33.00" from="e2_in" to="e1_out"/>
    <trip id="347" depart="33.00" from="e3_in" to="e2_out"/>
    <trip id="348" depart="33.00" from="e2_in" to="e1_out"/>
    <trip id="349" depart="33.00" from="e2_in" to="e4_out"/>
    <trip id="350" depart="33.00" from="e2_in" to="e4_out"/>
    <trip id="351" depart="33.00" from="e2_in" to="e1_out"/>
    <trip id="352" depart="34.00" from="e4_in" to="e4_out"/>
    <trip id="353" depart="34.00" from="e1_in" to="e4_out"/>
    <trip id="354" depart="34.00" from="e3_in" to="e3_out"/>
    <trip id="355" depart="34.00" from="e4_in" to="e4_out"/>
    <trip id="356" depart="34.00" from="e2_in" to="e2_out"/>
    <trip id="357" depart="34.00" from="e3_in" to="e1_out"/>
    <trip id="358" depart="34.00" from="e4_in" to="e2_out"/>
    <trip id="359" depart="34.00" from="e4_in" to="e3_out"/>
    <trip id="360" depart="34.00" from="e2_in" to="e2_out"/>
    <trip id="361" depart="34.00" from="e2_in" to="e1_out"/>
    <trip id="362" depart="34.00" from="e1_in" to="e2_out"/>
    <trip id="363" depart="34.00" from="e1_in" to="e2_out"/>
    <trip id="364" depart="35.00" from="e3_in" to="e2_out"/>
    <trip id="365" depart="35.00" from="e3_in" to="e2_out"/>
    <trip id="366" depart="35.00" from="e1_in" to="e3_out"/>
    <trip id="367" depart="35.00" from="e4_in" to="e1_out"/>
    <trip id="368" depart="35.00" from="e2_in" to="e3_out"/>
    <trip id="369" depart="35.00" from="e1_in" to="e4_out"/>
    <trip id="370" depart="35.00" from="e2_in" to="e4_out"/>
    <trip id="371" depart="35.00" from="e3_in" to="e3_out"/>
    <trip id="372" depart="35.00" from="e3_in" to="e4_out"/>
    <trip id="373" depart="35.00" from="e4_in" to="e4_out"/>
    <trip id="374" depart="35.00" from="e4_in" to="e3_out"/>
    <trip id="375" depart="36.00" from="e4_in" to="e1_out"/>
    <trip id="376" depart="36.00" from="e4_in" to="e3_out"/>
    <trip id="377" depart="36.00" from="e4_in" to="e2_out"/>
    <trip id="378" depart="36.00" from="e3_in" to="e2_out"/>
    <trip id="379" depart="36.00" from="e2_in" to="e3_out"/>
    <trip id="380" depart="36.00" from="e3_in" to="e1_out"/>
    <trip id="381" depart="36.00" from="e1_in" to="e3_out"/>
    <trip id="382" depart="36.00" from="e2_in" to="e3_out"/>
    <trip id="383" depart="36.00" from="e1_in" to="e4_out"/>
    <trip id="384" depart="37.00" from="e1_in" to="e2_out"/>
    <trip id="385" depart="37.00" from="e3_in" to="e4_out"/>
    <trip id="386" depart="37.00" from="e4_in" to="e2_out"/>
    <trip id="387" depart="37.00" from="e1_in" to="e1_out"/>
    <trip id="388" depart="37.00" from="e4_in" to="e2_out"/>
    <trip id="389" depart="37.00" from="e4_in" to="e3_out"/>
    <trip id="390" depart="38.00" from="e4_in" to="e3_out"/>
    <trip id="391" depart="38.00" from="e2_in" to="e2_out"/>
    <trip id="392" depart="38.00" from="e2_in" to="e3_out"/>
    <trip id="393" depart="38.00" from="e4_in" to="e1_out"/>
    <trip id="394" depart="38.00" from="e1_in" to="e4_out"/>
    <trip id="395" depart="38.00" from="e4_in" to="e1_out"/>
    <trip id="396" depart="38.00" from="e3_in" to="e4_out"/>
    <trip id="397" depart="38.00" from="e2_in" to="e1_out"/>
    <trip id="398" depart="38.00" from="e3_in" to="e2_out"/>
    <trip id="399" depart="39.00" from="e1_in" to="e1_out"/>
    <trip id="400" depart="39.00" from="e4_in" to="e4_out"/>
    <trip id="401" depart="39.00" from="e3_in" to="e4_out"/>
    <trip id="402" depart="39.00" from="e1_in" to="e4_out"/>
    <trip id="403" depart="39.00" from="e2_in" to="e3_out"/>
    <trip id="404" depart="39.00" from="e4_in" to="e2_out"/>
    <trip id="405" depart="39.00" from="e1_in" to="e3_out"/>
    <trip id="406" depart="39.00" from="e1_in" to="e1_out"/>
    <trip id="407" depart="39.00" from="e1_in" to="e4_out"/>
    <trip id="408" depart="39.00" from="e1_in" to="e3_out"/>
    <trip id="409" depart="39.00" from="e1_in" to="e3_out"/>
    <trip id="410" depart="39.00" from="e2_in" to="e1_out"/>
    <trip id="411" depart="39.00" from="e2_in" to="e2_out"/>
    <trip id="412" depart="39.00" from="e4_in" to="e4_out"/>
    <trip id="413" depart="40.00" from="e3_in" to="e1_out"/>
    <trip id="414" depart="40.00" from="e3_in" to="e1_out"/>
    <trip id="415" depart="40.00" from="e2_in" to="e3_out"/>
    <trip id="416" depart="40.00" from="e4_in" to="e3_out"/>
    <trip id="417" depart="40.00" from="e2_in" to="e1_out"/>
    <trip id="418" depart="40.00" from="e2_in" to="e4_out"/>
    <trip id="419" depart="40.00" from="e1_in" to="e3_out"/>
    <trip id="420" depart="40.00" from="e3_in" to="e2_out"/>
    <trip id="421" depart="40.00" from="e2_in" to="e3_out"/>
    <trip id="422" depart="40.00" from="e2_in" to="e1_out"/>
    <trip id="423" depart="40.00" from="e2_in" to="e1_out"/>
    <trip id="424" depart="40.00" from="e3_in" to="e2_out"/>
    <trip id="425" depart="40.00" from="e1_in" to="e3_out"/>
    <trip id="426" depart="41.00" from="e1_in" to="e1_out"/>
    <trip id="427" depart="41.00" from="e3_in" to="e1_out"/>
    <trip id="428" depart="41.00" from="e2_in" to="e1_out"/>
    <trip id="429" depart="41.00" from="e1_in" to="e4_out"/>
    <trip id="430" depart="41.00" from="e2_in" to="e2_out"/>
    <trip id="431" depart="41.00" from="e3_in" to="e3_out"/>
    <trip id="432" depart="41.00" from="e1_in" to="e4_out"/>
    <trip id="433" depart="41.00" from="e2_in" to="e1_out"/>
    <trip id="434" depart="41.00" from="e2_in" to="e3_out"/>
    <trip id="435" depart="41.00" from="e4_in" to="e2_out"/>
    <trip id="436" depart="41.00" from="e3_in" to="e2_out"/>
    <trip id="437" depart="42.00" from="e3_in" to="e4_out"/>
    <trip id="438" depart="42.00" from="e2_in" to="e3_out"/>
    <trip id="439" depart="42.00" from="e3_in" to="e3_out"/>
    <trip id="440" depart="42.00" from="e3_in" to="e1_out"/>
    <trip id="441" depart="42.00" from="e2_in" to="e3_out"/>
    <trip id="442" depart="42.00" from="e1_in" to="e4_out"/>
    <trip id="443" depart="42.00" from="e2_in" to="e3_out"/>
    <trip id="444" depart="42.00" from="e3_in" to="e1_out"/>
    <trip id="445" depart="42.00" from="e1_in" to="e1_out"/>
    <trip id="446" depart="42.00" from="e3_in" to="e2_out"/>
    <trip id="447" depart="42.00" from="e1_in" to="e1_out"/>
    <trip id="448" depart="42.00" from="e3_in" to="e1_out"/>
    <trip id="449" depart="42.00" from="e4_in" to="e1_out"/>
    <trip id="450" depart="43.00" from="e3_in" to="e4_out"/>
    <trip id="451" depart="43.00" from="e3_in" to="e1_out"/>
    <trip id="452" depart="43.00" from="e3_in" to="e4_out"/>
    <trip id="453" depart="43.00" from="e4_in" to="e3_out"/>
    <trip id="454" depart="43.00" from="e3_in" to="e2_out"/>
    <trip id="455" depart="43.00" from="e1_in" to="e3_out"/>
    <trip id="456" depart="43.00" from="e3_in" to="e1_out"/>
    <trip id="457" depart="44.00" from="e2_in" to="e4_out"/>
    <trip id="458" depart="44.00" from="e3_in" to="e2_out"/>
    <trip id="459" depart="44.00" from="e1_in" to="e3_out"/>
    <trip id="460" depart="44.00" from="e3_in" to="e4_out"/>
    <trip id="461" depart="44.00" from="e2_in" to="e1_out"/>
    <trip id="462" depart="44.00" from="e1_in" to="e3_out"/>
    <trip id="463" depart="44.00" from="e4_in" to="e4_out"/>
    <trip id="464" depart="45.00" from="e4_in" to="e2_out"/>
    <trip id="465" depart="45.00" from="e4_in" to="e2_out"/>
    <trip id="466" depart="45.00" from="e3_in" to="e1_out"/>
    <trip id="467" depart="45.00" from="e4_in" to="e2_out"/>
    <trip id="468" depart="45.00" from="e3_in" to="e1_out"/>
    <trip id="469" depart="45.00" from="e4_in" to="e3_out"/>
    <trip id="470" depart="45.00" from="e2_in" to="e3_out"/>
    <trip id="471" depart="45.00" from="e2_in" to="e3_out"/>
    <trip id="472" depart="45.00" from="e1_in" to="e4_out"/>
    <trip id="473" depart="45.00" from="e3_in" to="e1_out"/>
    <trip id="474" depart="45.00" from="e1_in" to="e3_out"/>
    <trip id="475" depart="45.00" from="e1_in" to="e1_out"/>
    <trip id="476" depart="45.00" from="e1_in" to="e1_out"/>
    <trip id="477" depart="45.00" from="e2_in" to="e2_out"/>
    <trip id="478" depart="45.00" from="e4_in" to="e2_out"/>
    <trip id="479" depart="45.00" from="e1_in" to="e1_out"/>
    <trip id="480" depart="46.00" from="e4_in" to="e1_out"/>
    <trip id="481" depart="46.00" from="e4_in" to="e4_out"/>
    <trip id="482" depart="46.00" from="e2_in" to="e3_out"/>
    <trip id="483" depart="46.00" from="e3_in" to="e3_out"/>
    <trip id="484" depart="46.00" from="e1_in" to="e4_out"/>
    <trip id="485" depart="46.00" from="e1_in" to="e3_out"/>
    <trip id="486" depart="46.00" from="e4_in" to="e4_out"/>
    <trip id="487" depart="46.00" from="e3_in" to="e4_out"/>
    <trip id="488" depart="46.00" from="e4_in" to="e4_out"/>